Circuit: * C:\Users\dinhj\Desktop\Academia Repository\BEE Repository\BEE 331 Microelectronics and Circuits\Labs\BEE331_Lab_3\BEE331_Lab_3\SPICE\3-2.asc

WARNING: Node NC_01 is floating.

Direct Newton iteration for .op point succeeded.

Date: Wed Aug  7 04:54:08 2024
Total elapsed time: 0.172 seconds.

tnom = 27
temp = 27
method = modified trap
totiter = 3088
traniter = 3080
tranpoints = 1362
accept = 1289
rejected = 73
matrix size = 9
fillins = 0
solver = Normal
Avg thread counts: 2.9/5.3/5.4/2.9
Matrix Compiler1:      21 opcodes  0.3/[0.2]/0.3
Matrix Compiler2: 669 bytes object code size  0.2/0.4/[0.2]

