Circuit: * C:\Users\dinhj\Desktop\Academia Repository\BEE Repository\BEE 331 Microelectronics and Circuits\Labs\BEE331_Lab_3\BEE331_Lab_3\SPICE\Draft2.asc

WARNING: Node NC_01 is floating.
WARNING: Node NC_02 is floating.

WARNING: Less than two connections to node nc_01.  This node is used by v§inputa.
WARNING: Less than two connections to node nc_02.  This node is used by v§inputb.
WARNING: Less than two connections to node nc_03.  This node is used by vdd.
Direct Newton iteration for .op point succeeded.

Date: Wed Aug  7 05:04:33 2024
Total elapsed time: 0.173 seconds.

tnom = 27
temp = 27
method = modified trap
totiter = 2170
traniter = 2154
tranpoints = 1077
accept = 1067
rejected = 10
matrix size = 11
fillins = 21
solver = Normal
Avg thread counts: 3.7/6.4/6.5/3.7
Matrix Compiler1: 1.65 KB object code size  0.8/0.5/[0.4]
Matrix Compiler2: 1.18 KB object code size  0.3/0.4/[0.2]

