Circuit: * C:\Users\dinhj\Desktop\Academia Repository\BEE Repository\BEE 331 Microelectronics and Circuits\Labs\BEE331_Lab_3\BEE331_Lab_3\SPICE\Draft3.asc

WARNING: Node NC_01 is floating.
WARNING: Node NC_02 is floating.

WARNING: Less than two connections to node nc_01.  This node is used by v§ainput.
WARNING: Less than two connections to node nc_02.  This node is used by v§binput.
Direct Newton iteration for .op point succeeded.

Date: Wed Aug  7 05:14:45 2024
Total elapsed time: 0.151 seconds.

tnom = 27
temp = 27
method = modified trap
totiter = 2800
traniter = 2794
tranpoints = 1229
accept = 1184
rejected = 45
matrix size = 10
fillins = 14
solver = Normal
Avg thread counts: 3.1/5.8/5.9/3.1
Matrix Compiler1: 1.08 KB object code size  0.6/0.4/[0.3]
Matrix Compiler2: off  [0.3]/0.4/0.3

